* Ring Oscillator DCO - SPICE netlist using gf180mcu standard cells
* Auto-generated for CTRL_WIDTH=8
* 512 inverters, 256 taps, 8-level mux tree
*
.subckt ring_dco enable ctrl_0 ctrl_1 ctrl_2 ctrl_3 ctrl_4 ctrl_5 ctrl_6 ctrl_7 clk_out vdd vss

* Enable NAND gate: ring_0 = NAND(enable, fb)
x_nand enable fb ring_0 vdd vdd vss vss gf180mcu_fd_sc_mcu7t5v0__nand2_1

* 512-stage inverter chain
x_inv0 ring_0 ring_1 vdd vdd vss vss gf180mcu_fd_sc_mcu7t5v0__inv_1
x_inv1 ring_1 ring_2 vdd vdd vss vss gf180mcu_fd_sc_mcu7t5v0__inv_1
x_inv2 ring_2 ring_3 vdd vdd vss vss gf180mcu_fd_sc_mcu7t5v0__inv_1
x_inv3 ring_3 ring_4 vdd vdd vss vss gf180mcu_fd_sc_mcu7t5v0__inv_1
x_inv4 ring_4 ring_5 vdd vdd vss vss gf180mcu_fd_sc_mcu7t5v0__inv_1
x_inv5 ring_5 ring_6 vdd vdd vss vss gf180mcu_fd_sc_mcu7t5v0__inv_1
x_inv6 ring_6 ring_7 vdd vdd vss vss gf180mcu_fd_sc_mcu7t5v0__inv_1
x_inv7 ring_7 ring_8 vdd vdd vss vss gf180mcu_fd_sc_mcu7t5v0__inv_1
x_inv8 ring_8 ring_9 vdd vdd vss vss gf180mcu_fd_sc_mcu7t5v0__inv_1
x_inv9 ring_9 ring_10 vdd vdd vss vss gf180mcu_fd_sc_mcu7t5v0__inv_1
x_inv10 ring_10 ring_11 vdd vdd vss vss gf180mcu_fd_sc_mcu7t5v0__inv_1
x_inv11 ring_11 ring_12 vdd vdd vss vss gf180mcu_fd_sc_mcu7t5v0__inv_1
x_inv12 ring_12 ring_13 vdd vdd vss vss gf180mcu_fd_sc_mcu7t5v0__inv_1
x_inv13 ring_13 ring_14 vdd vdd vss vss gf180mcu_fd_sc_mcu7t5v0__inv_1
x_inv14 ring_14 ring_15 vdd vdd vss vss gf180mcu_fd_sc_mcu7t5v0__inv_1
x_inv15 ring_15 ring_16 vdd vdd vss vss gf180mcu_fd_sc_mcu7t5v0__inv_1
x_inv16 ring_16 ring_17 vdd vdd vss vss gf180mcu_fd_sc_mcu7t5v0__inv_1
x_inv17 ring_17 ring_18 vdd vdd vss vss gf180mcu_fd_sc_mcu7t5v0__inv_1
x_inv18 ring_18 ring_19 vdd vdd vss vss gf180mcu_fd_sc_mcu7t5v0__inv_1
x_inv19 ring_19 ring_20 vdd vdd vss vss gf180mcu_fd_sc_mcu7t5v0__inv_1
x_inv20 ring_20 ring_21 vdd vdd vss vss gf180mcu_fd_sc_mcu7t5v0__inv_1
x_inv21 ring_21 ring_22 vdd vdd vss vss gf180mcu_fd_sc_mcu7t5v0__inv_1
x_inv22 ring_22 ring_23 vdd vdd vss vss gf180mcu_fd_sc_mcu7t5v0__inv_1
x_inv23 ring_23 ring_24 vdd vdd vss vss gf180mcu_fd_sc_mcu7t5v0__inv_1
x_inv24 ring_24 ring_25 vdd vdd vss vss gf180mcu_fd_sc_mcu7t5v0__inv_1
x_inv25 ring_25 ring_26 vdd vdd vss vss gf180mcu_fd_sc_mcu7t5v0__inv_1
x_inv26 ring_26 ring_27 vdd vdd vss vss gf180mcu_fd_sc_mcu7t5v0__inv_1
x_inv27 ring_27 ring_28 vdd vdd vss vss gf180mcu_fd_sc_mcu7t5v0__inv_1
x_inv28 ring_28 ring_29 vdd vdd vss vss gf180mcu_fd_sc_mcu7t5v0__inv_1
x_inv29 ring_29 ring_30 vdd vdd vss vss gf180mcu_fd_sc_mcu7t5v0__inv_1
x_inv30 ring_30 ring_31 vdd vdd vss vss gf180mcu_fd_sc_mcu7t5v0__inv_1
x_inv31 ring_31 ring_32 vdd vdd vss vss gf180mcu_fd_sc_mcu7t5v0__inv_1
x_inv32 ring_32 ring_33 vdd vdd vss vss gf180mcu_fd_sc_mcu7t5v0__inv_1
x_inv33 ring_33 ring_34 vdd vdd vss vss gf180mcu_fd_sc_mcu7t5v0__inv_1
x_inv34 ring_34 ring_35 vdd vdd vss vss gf180mcu_fd_sc_mcu7t5v0__inv_1
x_inv35 ring_35 ring_36 vdd vdd vss vss gf180mcu_fd_sc_mcu7t5v0__inv_1
x_inv36 ring_36 ring_37 vdd vdd vss vss gf180mcu_fd_sc_mcu7t5v0__inv_1
x_inv37 ring_37 ring_38 vdd vdd vss vss gf180mcu_fd_sc_mcu7t5v0__inv_1
x_inv38 ring_38 ring_39 vdd vdd vss vss gf180mcu_fd_sc_mcu7t5v0__inv_1
x_inv39 ring_39 ring_40 vdd vdd vss vss gf180mcu_fd_sc_mcu7t5v0__inv_1
x_inv40 ring_40 ring_41 vdd vdd vss vss gf180mcu_fd_sc_mcu7t5v0__inv_1
x_inv41 ring_41 ring_42 vdd vdd vss vss gf180mcu_fd_sc_mcu7t5v0__inv_1
x_inv42 ring_42 ring_43 vdd vdd vss vss gf180mcu_fd_sc_mcu7t5v0__inv_1
x_inv43 ring_43 ring_44 vdd vdd vss vss gf180mcu_fd_sc_mcu7t5v0__inv_1
x_inv44 ring_44 ring_45 vdd vdd vss vss gf180mcu_fd_sc_mcu7t5v0__inv_1
x_inv45 ring_45 ring_46 vdd vdd vss vss gf180mcu_fd_sc_mcu7t5v0__inv_1
x_inv46 ring_46 ring_47 vdd vdd vss vss gf180mcu_fd_sc_mcu7t5v0__inv_1
x_inv47 ring_47 ring_48 vdd vdd vss vss gf180mcu_fd_sc_mcu7t5v0__inv_1
x_inv48 ring_48 ring_49 vdd vdd vss vss gf180mcu_fd_sc_mcu7t5v0__inv_1
x_inv49 ring_49 ring_50 vdd vdd vss vss gf180mcu_fd_sc_mcu7t5v0__inv_1
x_inv50 ring_50 ring_51 vdd vdd vss vss gf180mcu_fd_sc_mcu7t5v0__inv_1
x_inv51 ring_51 ring_52 vdd vdd vss vss gf180mcu_fd_sc_mcu7t5v0__inv_1
x_inv52 ring_52 ring_53 vdd vdd vss vss gf180mcu_fd_sc_mcu7t5v0__inv_1
x_inv53 ring_53 ring_54 vdd vdd vss vss gf180mcu_fd_sc_mcu7t5v0__inv_1
x_inv54 ring_54 ring_55 vdd vdd vss vss gf180mcu_fd_sc_mcu7t5v0__inv_1
x_inv55 ring_55 ring_56 vdd vdd vss vss gf180mcu_fd_sc_mcu7t5v0__inv_1
x_inv56 ring_56 ring_57 vdd vdd vss vss gf180mcu_fd_sc_mcu7t5v0__inv_1
x_inv57 ring_57 ring_58 vdd vdd vss vss gf180mcu_fd_sc_mcu7t5v0__inv_1
x_inv58 ring_58 ring_59 vdd vdd vss vss gf180mcu_fd_sc_mcu7t5v0__inv_1
x_inv59 ring_59 ring_60 vdd vdd vss vss gf180mcu_fd_sc_mcu7t5v0__inv_1
x_inv60 ring_60 ring_61 vdd vdd vss vss gf180mcu_fd_sc_mcu7t5v0__inv_1
x_inv61 ring_61 ring_62 vdd vdd vss vss gf180mcu_fd_sc_mcu7t5v0__inv_1
x_inv62 ring_62 ring_63 vdd vdd vss vss gf180mcu_fd_sc_mcu7t5v0__inv_1
x_inv63 ring_63 ring_64 vdd vdd vss vss gf180mcu_fd_sc_mcu7t5v0__inv_1
x_inv64 ring_64 ring_65 vdd vdd vss vss gf180mcu_fd_sc_mcu7t5v0__inv_1
x_inv65 ring_65 ring_66 vdd vdd vss vss gf180mcu_fd_sc_mcu7t5v0__inv_1
x_inv66 ring_66 ring_67 vdd vdd vss vss gf180mcu_fd_sc_mcu7t5v0__inv_1
x_inv67 ring_67 ring_68 vdd vdd vss vss gf180mcu_fd_sc_mcu7t5v0__inv_1
x_inv68 ring_68 ring_69 vdd vdd vss vss gf180mcu_fd_sc_mcu7t5v0__inv_1
x_inv69 ring_69 ring_70 vdd vdd vss vss gf180mcu_fd_sc_mcu7t5v0__inv_1
x_inv70 ring_70 ring_71 vdd vdd vss vss gf180mcu_fd_sc_mcu7t5v0__inv_1
x_inv71 ring_71 ring_72 vdd vdd vss vss gf180mcu_fd_sc_mcu7t5v0__inv_1
x_inv72 ring_72 ring_73 vdd vdd vss vss gf180mcu_fd_sc_mcu7t5v0__inv_1
x_inv73 ring_73 ring_74 vdd vdd vss vss gf180mcu_fd_sc_mcu7t5v0__inv_1
x_inv74 ring_74 ring_75 vdd vdd vss vss gf180mcu_fd_sc_mcu7t5v0__inv_1
x_inv75 ring_75 ring_76 vdd vdd vss vss gf180mcu_fd_sc_mcu7t5v0__inv_1
x_inv76 ring_76 ring_77 vdd vdd vss vss gf180mcu_fd_sc_mcu7t5v0__inv_1
x_inv77 ring_77 ring_78 vdd vdd vss vss gf180mcu_fd_sc_mcu7t5v0__inv_1
x_inv78 ring_78 ring_79 vdd vdd vss vss gf180mcu_fd_sc_mcu7t5v0__inv_1
x_inv79 ring_79 ring_80 vdd vdd vss vss gf180mcu_fd_sc_mcu7t5v0__inv_1
x_inv80 ring_80 ring_81 vdd vdd vss vss gf180mcu_fd_sc_mcu7t5v0__inv_1
x_inv81 ring_81 ring_82 vdd vdd vss vss gf180mcu_fd_sc_mcu7t5v0__inv_1
x_inv82 ring_82 ring_83 vdd vdd vss vss gf180mcu_fd_sc_mcu7t5v0__inv_1
x_inv83 ring_83 ring_84 vdd vdd vss vss gf180mcu_fd_sc_mcu7t5v0__inv_1
x_inv84 ring_84 ring_85 vdd vdd vss vss gf180mcu_fd_sc_mcu7t5v0__inv_1
x_inv85 ring_85 ring_86 vdd vdd vss vss gf180mcu_fd_sc_mcu7t5v0__inv_1
x_inv86 ring_86 ring_87 vdd vdd vss vss gf180mcu_fd_sc_mcu7t5v0__inv_1
x_inv87 ring_87 ring_88 vdd vdd vss vss gf180mcu_fd_sc_mcu7t5v0__inv_1
x_inv88 ring_88 ring_89 vdd vdd vss vss gf180mcu_fd_sc_mcu7t5v0__inv_1
x_inv89 ring_89 ring_90 vdd vdd vss vss gf180mcu_fd_sc_mcu7t5v0__inv_1
x_inv90 ring_90 ring_91 vdd vdd vss vss gf180mcu_fd_sc_mcu7t5v0__inv_1
x_inv91 ring_91 ring_92 vdd vdd vss vss gf180mcu_fd_sc_mcu7t5v0__inv_1
x_inv92 ring_92 ring_93 vdd vdd vss vss gf180mcu_fd_sc_mcu7t5v0__inv_1
x_inv93 ring_93 ring_94 vdd vdd vss vss gf180mcu_fd_sc_mcu7t5v0__inv_1
x_inv94 ring_94 ring_95 vdd vdd vss vss gf180mcu_fd_sc_mcu7t5v0__inv_1
x_inv95 ring_95 ring_96 vdd vdd vss vss gf180mcu_fd_sc_mcu7t5v0__inv_1
x_inv96 ring_96 ring_97 vdd vdd vss vss gf180mcu_fd_sc_mcu7t5v0__inv_1
x_inv97 ring_97 ring_98 vdd vdd vss vss gf180mcu_fd_sc_mcu7t5v0__inv_1
x_inv98 ring_98 ring_99 vdd vdd vss vss gf180mcu_fd_sc_mcu7t5v0__inv_1
x_inv99 ring_99 ring_100 vdd vdd vss vss gf180mcu_fd_sc_mcu7t5v0__inv_1
x_inv100 ring_100 ring_101 vdd vdd vss vss gf180mcu_fd_sc_mcu7t5v0__inv_1
x_inv101 ring_101 ring_102 vdd vdd vss vss gf180mcu_fd_sc_mcu7t5v0__inv_1
x_inv102 ring_102 ring_103 vdd vdd vss vss gf180mcu_fd_sc_mcu7t5v0__inv_1
x_inv103 ring_103 ring_104 vdd vdd vss vss gf180mcu_fd_sc_mcu7t5v0__inv_1
x_inv104 ring_104 ring_105 vdd vdd vss vss gf180mcu_fd_sc_mcu7t5v0__inv_1
x_inv105 ring_105 ring_106 vdd vdd vss vss gf180mcu_fd_sc_mcu7t5v0__inv_1
x_inv106 ring_106 ring_107 vdd vdd vss vss gf180mcu_fd_sc_mcu7t5v0__inv_1
x_inv107 ring_107 ring_108 vdd vdd vss vss gf180mcu_fd_sc_mcu7t5v0__inv_1
x_inv108 ring_108 ring_109 vdd vdd vss vss gf180mcu_fd_sc_mcu7t5v0__inv_1
x_inv109 ring_109 ring_110 vdd vdd vss vss gf180mcu_fd_sc_mcu7t5v0__inv_1
x_inv110 ring_110 ring_111 vdd vdd vss vss gf180mcu_fd_sc_mcu7t5v0__inv_1
x_inv111 ring_111 ring_112 vdd vdd vss vss gf180mcu_fd_sc_mcu7t5v0__inv_1
x_inv112 ring_112 ring_113 vdd vdd vss vss gf180mcu_fd_sc_mcu7t5v0__inv_1
x_inv113 ring_113 ring_114 vdd vdd vss vss gf180mcu_fd_sc_mcu7t5v0__inv_1
x_inv114 ring_114 ring_115 vdd vdd vss vss gf180mcu_fd_sc_mcu7t5v0__inv_1
x_inv115 ring_115 ring_116 vdd vdd vss vss gf180mcu_fd_sc_mcu7t5v0__inv_1
x_inv116 ring_116 ring_117 vdd vdd vss vss gf180mcu_fd_sc_mcu7t5v0__inv_1
x_inv117 ring_117 ring_118 vdd vdd vss vss gf180mcu_fd_sc_mcu7t5v0__inv_1
x_inv118 ring_118 ring_119 vdd vdd vss vss gf180mcu_fd_sc_mcu7t5v0__inv_1
x_inv119 ring_119 ring_120 vdd vdd vss vss gf180mcu_fd_sc_mcu7t5v0__inv_1
x_inv120 ring_120 ring_121 vdd vdd vss vss gf180mcu_fd_sc_mcu7t5v0__inv_1
x_inv121 ring_121 ring_122 vdd vdd vss vss gf180mcu_fd_sc_mcu7t5v0__inv_1
x_inv122 ring_122 ring_123 vdd vdd vss vss gf180mcu_fd_sc_mcu7t5v0__inv_1
x_inv123 ring_123 ring_124 vdd vdd vss vss gf180mcu_fd_sc_mcu7t5v0__inv_1
x_inv124 ring_124 ring_125 vdd vdd vss vss gf180mcu_fd_sc_mcu7t5v0__inv_1
x_inv125 ring_125 ring_126 vdd vdd vss vss gf180mcu_fd_sc_mcu7t5v0__inv_1
x_inv126 ring_126 ring_127 vdd vdd vss vss gf180mcu_fd_sc_mcu7t5v0__inv_1
x_inv127 ring_127 ring_128 vdd vdd vss vss gf180mcu_fd_sc_mcu7t5v0__inv_1
x_inv128 ring_128 ring_129 vdd vdd vss vss gf180mcu_fd_sc_mcu7t5v0__inv_1
x_inv129 ring_129 ring_130 vdd vdd vss vss gf180mcu_fd_sc_mcu7t5v0__inv_1
x_inv130 ring_130 ring_131 vdd vdd vss vss gf180mcu_fd_sc_mcu7t5v0__inv_1
x_inv131 ring_131 ring_132 vdd vdd vss vss gf180mcu_fd_sc_mcu7t5v0__inv_1
x_inv132 ring_132 ring_133 vdd vdd vss vss gf180mcu_fd_sc_mcu7t5v0__inv_1
x_inv133 ring_133 ring_134 vdd vdd vss vss gf180mcu_fd_sc_mcu7t5v0__inv_1
x_inv134 ring_134 ring_135 vdd vdd vss vss gf180mcu_fd_sc_mcu7t5v0__inv_1
x_inv135 ring_135 ring_136 vdd vdd vss vss gf180mcu_fd_sc_mcu7t5v0__inv_1
x_inv136 ring_136 ring_137 vdd vdd vss vss gf180mcu_fd_sc_mcu7t5v0__inv_1
x_inv137 ring_137 ring_138 vdd vdd vss vss gf180mcu_fd_sc_mcu7t5v0__inv_1
x_inv138 ring_138 ring_139 vdd vdd vss vss gf180mcu_fd_sc_mcu7t5v0__inv_1
x_inv139 ring_139 ring_140 vdd vdd vss vss gf180mcu_fd_sc_mcu7t5v0__inv_1
x_inv140 ring_140 ring_141 vdd vdd vss vss gf180mcu_fd_sc_mcu7t5v0__inv_1
x_inv141 ring_141 ring_142 vdd vdd vss vss gf180mcu_fd_sc_mcu7t5v0__inv_1
x_inv142 ring_142 ring_143 vdd vdd vss vss gf180mcu_fd_sc_mcu7t5v0__inv_1
x_inv143 ring_143 ring_144 vdd vdd vss vss gf180mcu_fd_sc_mcu7t5v0__inv_1
x_inv144 ring_144 ring_145 vdd vdd vss vss gf180mcu_fd_sc_mcu7t5v0__inv_1
x_inv145 ring_145 ring_146 vdd vdd vss vss gf180mcu_fd_sc_mcu7t5v0__inv_1
x_inv146 ring_146 ring_147 vdd vdd vss vss gf180mcu_fd_sc_mcu7t5v0__inv_1
x_inv147 ring_147 ring_148 vdd vdd vss vss gf180mcu_fd_sc_mcu7t5v0__inv_1
x_inv148 ring_148 ring_149 vdd vdd vss vss gf180mcu_fd_sc_mcu7t5v0__inv_1
x_inv149 ring_149 ring_150 vdd vdd vss vss gf180mcu_fd_sc_mcu7t5v0__inv_1
x_inv150 ring_150 ring_151 vdd vdd vss vss gf180mcu_fd_sc_mcu7t5v0__inv_1
x_inv151 ring_151 ring_152 vdd vdd vss vss gf180mcu_fd_sc_mcu7t5v0__inv_1
x_inv152 ring_152 ring_153 vdd vdd vss vss gf180mcu_fd_sc_mcu7t5v0__inv_1
x_inv153 ring_153 ring_154 vdd vdd vss vss gf180mcu_fd_sc_mcu7t5v0__inv_1
x_inv154 ring_154 ring_155 vdd vdd vss vss gf180mcu_fd_sc_mcu7t5v0__inv_1
x_inv155 ring_155 ring_156 vdd vdd vss vss gf180mcu_fd_sc_mcu7t5v0__inv_1
x_inv156 ring_156 ring_157 vdd vdd vss vss gf180mcu_fd_sc_mcu7t5v0__inv_1
x_inv157 ring_157 ring_158 vdd vdd vss vss gf180mcu_fd_sc_mcu7t5v0__inv_1
x_inv158 ring_158 ring_159 vdd vdd vss vss gf180mcu_fd_sc_mcu7t5v0__inv_1
x_inv159 ring_159 ring_160 vdd vdd vss vss gf180mcu_fd_sc_mcu7t5v0__inv_1
x_inv160 ring_160 ring_161 vdd vdd vss vss gf180mcu_fd_sc_mcu7t5v0__inv_1
x_inv161 ring_161 ring_162 vdd vdd vss vss gf180mcu_fd_sc_mcu7t5v0__inv_1
x_inv162 ring_162 ring_163 vdd vdd vss vss gf180mcu_fd_sc_mcu7t5v0__inv_1
x_inv163 ring_163 ring_164 vdd vdd vss vss gf180mcu_fd_sc_mcu7t5v0__inv_1
x_inv164 ring_164 ring_165 vdd vdd vss vss gf180mcu_fd_sc_mcu7t5v0__inv_1
x_inv165 ring_165 ring_166 vdd vdd vss vss gf180mcu_fd_sc_mcu7t5v0__inv_1
x_inv166 ring_166 ring_167 vdd vdd vss vss gf180mcu_fd_sc_mcu7t5v0__inv_1
x_inv167 ring_167 ring_168 vdd vdd vss vss gf180mcu_fd_sc_mcu7t5v0__inv_1
x_inv168 ring_168 ring_169 vdd vdd vss vss gf180mcu_fd_sc_mcu7t5v0__inv_1
x_inv169 ring_169 ring_170 vdd vdd vss vss gf180mcu_fd_sc_mcu7t5v0__inv_1
x_inv170 ring_170 ring_171 vdd vdd vss vss gf180mcu_fd_sc_mcu7t5v0__inv_1
x_inv171 ring_171 ring_172 vdd vdd vss vss gf180mcu_fd_sc_mcu7t5v0__inv_1
x_inv172 ring_172 ring_173 vdd vdd vss vss gf180mcu_fd_sc_mcu7t5v0__inv_1
x_inv173 ring_173 ring_174 vdd vdd vss vss gf180mcu_fd_sc_mcu7t5v0__inv_1
x_inv174 ring_174 ring_175 vdd vdd vss vss gf180mcu_fd_sc_mcu7t5v0__inv_1
x_inv175 ring_175 ring_176 vdd vdd vss vss gf180mcu_fd_sc_mcu7t5v0__inv_1
x_inv176 ring_176 ring_177 vdd vdd vss vss gf180mcu_fd_sc_mcu7t5v0__inv_1
x_inv177 ring_177 ring_178 vdd vdd vss vss gf180mcu_fd_sc_mcu7t5v0__inv_1
x_inv178 ring_178 ring_179 vdd vdd vss vss gf180mcu_fd_sc_mcu7t5v0__inv_1
x_inv179 ring_179 ring_180 vdd vdd vss vss gf180mcu_fd_sc_mcu7t5v0__inv_1
x_inv180 ring_180 ring_181 vdd vdd vss vss gf180mcu_fd_sc_mcu7t5v0__inv_1
x_inv181 ring_181 ring_182 vdd vdd vss vss gf180mcu_fd_sc_mcu7t5v0__inv_1
x_inv182 ring_182 ring_183 vdd vdd vss vss gf180mcu_fd_sc_mcu7t5v0__inv_1
x_inv183 ring_183 ring_184 vdd vdd vss vss gf180mcu_fd_sc_mcu7t5v0__inv_1
x_inv184 ring_184 ring_185 vdd vdd vss vss gf180mcu_fd_sc_mcu7t5v0__inv_1
x_inv185 ring_185 ring_186 vdd vdd vss vss gf180mcu_fd_sc_mcu7t5v0__inv_1
x_inv186 ring_186 ring_187 vdd vdd vss vss gf180mcu_fd_sc_mcu7t5v0__inv_1
x_inv187 ring_187 ring_188 vdd vdd vss vss gf180mcu_fd_sc_mcu7t5v0__inv_1
x_inv188 ring_188 ring_189 vdd vdd vss vss gf180mcu_fd_sc_mcu7t5v0__inv_1
x_inv189 ring_189 ring_190 vdd vdd vss vss gf180mcu_fd_sc_mcu7t5v0__inv_1
x_inv190 ring_190 ring_191 vdd vdd vss vss gf180mcu_fd_sc_mcu7t5v0__inv_1
x_inv191 ring_191 ring_192 vdd vdd vss vss gf180mcu_fd_sc_mcu7t5v0__inv_1
x_inv192 ring_192 ring_193 vdd vdd vss vss gf180mcu_fd_sc_mcu7t5v0__inv_1
x_inv193 ring_193 ring_194 vdd vdd vss vss gf180mcu_fd_sc_mcu7t5v0__inv_1
x_inv194 ring_194 ring_195 vdd vdd vss vss gf180mcu_fd_sc_mcu7t5v0__inv_1
x_inv195 ring_195 ring_196 vdd vdd vss vss gf180mcu_fd_sc_mcu7t5v0__inv_1
x_inv196 ring_196 ring_197 vdd vdd vss vss gf180mcu_fd_sc_mcu7t5v0__inv_1
x_inv197 ring_197 ring_198 vdd vdd vss vss gf180mcu_fd_sc_mcu7t5v0__inv_1
x_inv198 ring_198 ring_199 vdd vdd vss vss gf180mcu_fd_sc_mcu7t5v0__inv_1
x_inv199 ring_199 ring_200 vdd vdd vss vss gf180mcu_fd_sc_mcu7t5v0__inv_1
x_inv200 ring_200 ring_201 vdd vdd vss vss gf180mcu_fd_sc_mcu7t5v0__inv_1
x_inv201 ring_201 ring_202 vdd vdd vss vss gf180mcu_fd_sc_mcu7t5v0__inv_1
x_inv202 ring_202 ring_203 vdd vdd vss vss gf180mcu_fd_sc_mcu7t5v0__inv_1
x_inv203 ring_203 ring_204 vdd vdd vss vss gf180mcu_fd_sc_mcu7t5v0__inv_1
x_inv204 ring_204 ring_205 vdd vdd vss vss gf180mcu_fd_sc_mcu7t5v0__inv_1
x_inv205 ring_205 ring_206 vdd vdd vss vss gf180mcu_fd_sc_mcu7t5v0__inv_1
x_inv206 ring_206 ring_207 vdd vdd vss vss gf180mcu_fd_sc_mcu7t5v0__inv_1
x_inv207 ring_207 ring_208 vdd vdd vss vss gf180mcu_fd_sc_mcu7t5v0__inv_1
x_inv208 ring_208 ring_209 vdd vdd vss vss gf180mcu_fd_sc_mcu7t5v0__inv_1
x_inv209 ring_209 ring_210 vdd vdd vss vss gf180mcu_fd_sc_mcu7t5v0__inv_1
x_inv210 ring_210 ring_211 vdd vdd vss vss gf180mcu_fd_sc_mcu7t5v0__inv_1
x_inv211 ring_211 ring_212 vdd vdd vss vss gf180mcu_fd_sc_mcu7t5v0__inv_1
x_inv212 ring_212 ring_213 vdd vdd vss vss gf180mcu_fd_sc_mcu7t5v0__inv_1
x_inv213 ring_213 ring_214 vdd vdd vss vss gf180mcu_fd_sc_mcu7t5v0__inv_1
x_inv214 ring_214 ring_215 vdd vdd vss vss gf180mcu_fd_sc_mcu7t5v0__inv_1
x_inv215 ring_215 ring_216 vdd vdd vss vss gf180mcu_fd_sc_mcu7t5v0__inv_1
x_inv216 ring_216 ring_217 vdd vdd vss vss gf180mcu_fd_sc_mcu7t5v0__inv_1
x_inv217 ring_217 ring_218 vdd vdd vss vss gf180mcu_fd_sc_mcu7t5v0__inv_1
x_inv218 ring_218 ring_219 vdd vdd vss vss gf180mcu_fd_sc_mcu7t5v0__inv_1
x_inv219 ring_219 ring_220 vdd vdd vss vss gf180mcu_fd_sc_mcu7t5v0__inv_1
x_inv220 ring_220 ring_221 vdd vdd vss vss gf180mcu_fd_sc_mcu7t5v0__inv_1
x_inv221 ring_221 ring_222 vdd vdd vss vss gf180mcu_fd_sc_mcu7t5v0__inv_1
x_inv222 ring_222 ring_223 vdd vdd vss vss gf180mcu_fd_sc_mcu7t5v0__inv_1
x_inv223 ring_223 ring_224 vdd vdd vss vss gf180mcu_fd_sc_mcu7t5v0__inv_1
x_inv224 ring_224 ring_225 vdd vdd vss vss gf180mcu_fd_sc_mcu7t5v0__inv_1
x_inv225 ring_225 ring_226 vdd vdd vss vss gf180mcu_fd_sc_mcu7t5v0__inv_1
x_inv226 ring_226 ring_227 vdd vdd vss vss gf180mcu_fd_sc_mcu7t5v0__inv_1
x_inv227 ring_227 ring_228 vdd vdd vss vss gf180mcu_fd_sc_mcu7t5v0__inv_1
x_inv228 ring_228 ring_229 vdd vdd vss vss gf180mcu_fd_sc_mcu7t5v0__inv_1
x_inv229 ring_229 ring_230 vdd vdd vss vss gf180mcu_fd_sc_mcu7t5v0__inv_1
x_inv230 ring_230 ring_231 vdd vdd vss vss gf180mcu_fd_sc_mcu7t5v0__inv_1
x_inv231 ring_231 ring_232 vdd vdd vss vss gf180mcu_fd_sc_mcu7t5v0__inv_1
x_inv232 ring_232 ring_233 vdd vdd vss vss gf180mcu_fd_sc_mcu7t5v0__inv_1
x_inv233 ring_233 ring_234 vdd vdd vss vss gf180mcu_fd_sc_mcu7t5v0__inv_1
x_inv234 ring_234 ring_235 vdd vdd vss vss gf180mcu_fd_sc_mcu7t5v0__inv_1
x_inv235 ring_235 ring_236 vdd vdd vss vss gf180mcu_fd_sc_mcu7t5v0__inv_1
x_inv236 ring_236 ring_237 vdd vdd vss vss gf180mcu_fd_sc_mcu7t5v0__inv_1
x_inv237 ring_237 ring_238 vdd vdd vss vss gf180mcu_fd_sc_mcu7t5v0__inv_1
x_inv238 ring_238 ring_239 vdd vdd vss vss gf180mcu_fd_sc_mcu7t5v0__inv_1
x_inv239 ring_239 ring_240 vdd vdd vss vss gf180mcu_fd_sc_mcu7t5v0__inv_1
x_inv240 ring_240 ring_241 vdd vdd vss vss gf180mcu_fd_sc_mcu7t5v0__inv_1
x_inv241 ring_241 ring_242 vdd vdd vss vss gf180mcu_fd_sc_mcu7t5v0__inv_1
x_inv242 ring_242 ring_243 vdd vdd vss vss gf180mcu_fd_sc_mcu7t5v0__inv_1
x_inv243 ring_243 ring_244 vdd vdd vss vss gf180mcu_fd_sc_mcu7t5v0__inv_1
x_inv244 ring_244 ring_245 vdd vdd vss vss gf180mcu_fd_sc_mcu7t5v0__inv_1
x_inv245 ring_245 ring_246 vdd vdd vss vss gf180mcu_fd_sc_mcu7t5v0__inv_1
x_inv246 ring_246 ring_247 vdd vdd vss vss gf180mcu_fd_sc_mcu7t5v0__inv_1
x_inv247 ring_247 ring_248 vdd vdd vss vss gf180mcu_fd_sc_mcu7t5v0__inv_1
x_inv248 ring_248 ring_249 vdd vdd vss vss gf180mcu_fd_sc_mcu7t5v0__inv_1
x_inv249 ring_249 ring_250 vdd vdd vss vss gf180mcu_fd_sc_mcu7t5v0__inv_1
x_inv250 ring_250 ring_251 vdd vdd vss vss gf180mcu_fd_sc_mcu7t5v0__inv_1
x_inv251 ring_251 ring_252 vdd vdd vss vss gf180mcu_fd_sc_mcu7t5v0__inv_1
x_inv252 ring_252 ring_253 vdd vdd vss vss gf180mcu_fd_sc_mcu7t5v0__inv_1
x_inv253 ring_253 ring_254 vdd vdd vss vss gf180mcu_fd_sc_mcu7t5v0__inv_1
x_inv254 ring_254 ring_255 vdd vdd vss vss gf180mcu_fd_sc_mcu7t5v0__inv_1
x_inv255 ring_255 ring_256 vdd vdd vss vss gf180mcu_fd_sc_mcu7t5v0__inv_1
x_inv256 ring_256 ring_257 vdd vdd vss vss gf180mcu_fd_sc_mcu7t5v0__inv_1
x_inv257 ring_257 ring_258 vdd vdd vss vss gf180mcu_fd_sc_mcu7t5v0__inv_1
x_inv258 ring_258 ring_259 vdd vdd vss vss gf180mcu_fd_sc_mcu7t5v0__inv_1
x_inv259 ring_259 ring_260 vdd vdd vss vss gf180mcu_fd_sc_mcu7t5v0__inv_1
x_inv260 ring_260 ring_261 vdd vdd vss vss gf180mcu_fd_sc_mcu7t5v0__inv_1
x_inv261 ring_261 ring_262 vdd vdd vss vss gf180mcu_fd_sc_mcu7t5v0__inv_1
x_inv262 ring_262 ring_263 vdd vdd vss vss gf180mcu_fd_sc_mcu7t5v0__inv_1
x_inv263 ring_263 ring_264 vdd vdd vss vss gf180mcu_fd_sc_mcu7t5v0__inv_1
x_inv264 ring_264 ring_265 vdd vdd vss vss gf180mcu_fd_sc_mcu7t5v0__inv_1
x_inv265 ring_265 ring_266 vdd vdd vss vss gf180mcu_fd_sc_mcu7t5v0__inv_1
x_inv266 ring_266 ring_267 vdd vdd vss vss gf180mcu_fd_sc_mcu7t5v0__inv_1
x_inv267 ring_267 ring_268 vdd vdd vss vss gf180mcu_fd_sc_mcu7t5v0__inv_1
x_inv268 ring_268 ring_269 vdd vdd vss vss gf180mcu_fd_sc_mcu7t5v0__inv_1
x_inv269 ring_269 ring_270 vdd vdd vss vss gf180mcu_fd_sc_mcu7t5v0__inv_1
x_inv270 ring_270 ring_271 vdd vdd vss vss gf180mcu_fd_sc_mcu7t5v0__inv_1
x_inv271 ring_271 ring_272 vdd vdd vss vss gf180mcu_fd_sc_mcu7t5v0__inv_1
x_inv272 ring_272 ring_273 vdd vdd vss vss gf180mcu_fd_sc_mcu7t5v0__inv_1
x_inv273 ring_273 ring_274 vdd vdd vss vss gf180mcu_fd_sc_mcu7t5v0__inv_1
x_inv274 ring_274 ring_275 vdd vdd vss vss gf180mcu_fd_sc_mcu7t5v0__inv_1
x_inv275 ring_275 ring_276 vdd vdd vss vss gf180mcu_fd_sc_mcu7t5v0__inv_1
x_inv276 ring_276 ring_277 vdd vdd vss vss gf180mcu_fd_sc_mcu7t5v0__inv_1
x_inv277 ring_277 ring_278 vdd vdd vss vss gf180mcu_fd_sc_mcu7t5v0__inv_1
x_inv278 ring_278 ring_279 vdd vdd vss vss gf180mcu_fd_sc_mcu7t5v0__inv_1
x_inv279 ring_279 ring_280 vdd vdd vss vss gf180mcu_fd_sc_mcu7t5v0__inv_1
x_inv280 ring_280 ring_281 vdd vdd vss vss gf180mcu_fd_sc_mcu7t5v0__inv_1
x_inv281 ring_281 ring_282 vdd vdd vss vss gf180mcu_fd_sc_mcu7t5v0__inv_1
x_inv282 ring_282 ring_283 vdd vdd vss vss gf180mcu_fd_sc_mcu7t5v0__inv_1
x_inv283 ring_283 ring_284 vdd vdd vss vss gf180mcu_fd_sc_mcu7t5v0__inv_1
x_inv284 ring_284 ring_285 vdd vdd vss vss gf180mcu_fd_sc_mcu7t5v0__inv_1
x_inv285 ring_285 ring_286 vdd vdd vss vss gf180mcu_fd_sc_mcu7t5v0__inv_1
x_inv286 ring_286 ring_287 vdd vdd vss vss gf180mcu_fd_sc_mcu7t5v0__inv_1
x_inv287 ring_287 ring_288 vdd vdd vss vss gf180mcu_fd_sc_mcu7t5v0__inv_1
x_inv288 ring_288 ring_289 vdd vdd vss vss gf180mcu_fd_sc_mcu7t5v0__inv_1
x_inv289 ring_289 ring_290 vdd vdd vss vss gf180mcu_fd_sc_mcu7t5v0__inv_1
x_inv290 ring_290 ring_291 vdd vdd vss vss gf180mcu_fd_sc_mcu7t5v0__inv_1
x_inv291 ring_291 ring_292 vdd vdd vss vss gf180mcu_fd_sc_mcu7t5v0__inv_1
x_inv292 ring_292 ring_293 vdd vdd vss vss gf180mcu_fd_sc_mcu7t5v0__inv_1
x_inv293 ring_293 ring_294 vdd vdd vss vss gf180mcu_fd_sc_mcu7t5v0__inv_1
x_inv294 ring_294 ring_295 vdd vdd vss vss gf180mcu_fd_sc_mcu7t5v0__inv_1
x_inv295 ring_295 ring_296 vdd vdd vss vss gf180mcu_fd_sc_mcu7t5v0__inv_1
x_inv296 ring_296 ring_297 vdd vdd vss vss gf180mcu_fd_sc_mcu7t5v0__inv_1
x_inv297 ring_297 ring_298 vdd vdd vss vss gf180mcu_fd_sc_mcu7t5v0__inv_1
x_inv298 ring_298 ring_299 vdd vdd vss vss gf180mcu_fd_sc_mcu7t5v0__inv_1
x_inv299 ring_299 ring_300 vdd vdd vss vss gf180mcu_fd_sc_mcu7t5v0__inv_1
x_inv300 ring_300 ring_301 vdd vdd vss vss gf180mcu_fd_sc_mcu7t5v0__inv_1
x_inv301 ring_301 ring_302 vdd vdd vss vss gf180mcu_fd_sc_mcu7t5v0__inv_1
x_inv302 ring_302 ring_303 vdd vdd vss vss gf180mcu_fd_sc_mcu7t5v0__inv_1
x_inv303 ring_303 ring_304 vdd vdd vss vss gf180mcu_fd_sc_mcu7t5v0__inv_1
x_inv304 ring_304 ring_305 vdd vdd vss vss gf180mcu_fd_sc_mcu7t5v0__inv_1
x_inv305 ring_305 ring_306 vdd vdd vss vss gf180mcu_fd_sc_mcu7t5v0__inv_1
x_inv306 ring_306 ring_307 vdd vdd vss vss gf180mcu_fd_sc_mcu7t5v0__inv_1
x_inv307 ring_307 ring_308 vdd vdd vss vss gf180mcu_fd_sc_mcu7t5v0__inv_1
x_inv308 ring_308 ring_309 vdd vdd vss vss gf180mcu_fd_sc_mcu7t5v0__inv_1
x_inv309 ring_309 ring_310 vdd vdd vss vss gf180mcu_fd_sc_mcu7t5v0__inv_1
x_inv310 ring_310 ring_311 vdd vdd vss vss gf180mcu_fd_sc_mcu7t5v0__inv_1
x_inv311 ring_311 ring_312 vdd vdd vss vss gf180mcu_fd_sc_mcu7t5v0__inv_1
x_inv312 ring_312 ring_313 vdd vdd vss vss gf180mcu_fd_sc_mcu7t5v0__inv_1
x_inv313 ring_313 ring_314 vdd vdd vss vss gf180mcu_fd_sc_mcu7t5v0__inv_1
x_inv314 ring_314 ring_315 vdd vdd vss vss gf180mcu_fd_sc_mcu7t5v0__inv_1
x_inv315 ring_315 ring_316 vdd vdd vss vss gf180mcu_fd_sc_mcu7t5v0__inv_1
x_inv316 ring_316 ring_317 vdd vdd vss vss gf180mcu_fd_sc_mcu7t5v0__inv_1
x_inv317 ring_317 ring_318 vdd vdd vss vss gf180mcu_fd_sc_mcu7t5v0__inv_1
x_inv318 ring_318 ring_319 vdd vdd vss vss gf180mcu_fd_sc_mcu7t5v0__inv_1
x_inv319 ring_319 ring_320 vdd vdd vss vss gf180mcu_fd_sc_mcu7t5v0__inv_1
x_inv320 ring_320 ring_321 vdd vdd vss vss gf180mcu_fd_sc_mcu7t5v0__inv_1
x_inv321 ring_321 ring_322 vdd vdd vss vss gf180mcu_fd_sc_mcu7t5v0__inv_1
x_inv322 ring_322 ring_323 vdd vdd vss vss gf180mcu_fd_sc_mcu7t5v0__inv_1
x_inv323 ring_323 ring_324 vdd vdd vss vss gf180mcu_fd_sc_mcu7t5v0__inv_1
x_inv324 ring_324 ring_325 vdd vdd vss vss gf180mcu_fd_sc_mcu7t5v0__inv_1
x_inv325 ring_325 ring_326 vdd vdd vss vss gf180mcu_fd_sc_mcu7t5v0__inv_1
x_inv326 ring_326 ring_327 vdd vdd vss vss gf180mcu_fd_sc_mcu7t5v0__inv_1
x_inv327 ring_327 ring_328 vdd vdd vss vss gf180mcu_fd_sc_mcu7t5v0__inv_1
x_inv328 ring_328 ring_329 vdd vdd vss vss gf180mcu_fd_sc_mcu7t5v0__inv_1
x_inv329 ring_329 ring_330 vdd vdd vss vss gf180mcu_fd_sc_mcu7t5v0__inv_1
x_inv330 ring_330 ring_331 vdd vdd vss vss gf180mcu_fd_sc_mcu7t5v0__inv_1
x_inv331 ring_331 ring_332 vdd vdd vss vss gf180mcu_fd_sc_mcu7t5v0__inv_1
x_inv332 ring_332 ring_333 vdd vdd vss vss gf180mcu_fd_sc_mcu7t5v0__inv_1
x_inv333 ring_333 ring_334 vdd vdd vss vss gf180mcu_fd_sc_mcu7t5v0__inv_1
x_inv334 ring_334 ring_335 vdd vdd vss vss gf180mcu_fd_sc_mcu7t5v0__inv_1
x_inv335 ring_335 ring_336 vdd vdd vss vss gf180mcu_fd_sc_mcu7t5v0__inv_1
x_inv336 ring_336 ring_337 vdd vdd vss vss gf180mcu_fd_sc_mcu7t5v0__inv_1
x_inv337 ring_337 ring_338 vdd vdd vss vss gf180mcu_fd_sc_mcu7t5v0__inv_1
x_inv338 ring_338 ring_339 vdd vdd vss vss gf180mcu_fd_sc_mcu7t5v0__inv_1
x_inv339 ring_339 ring_340 vdd vdd vss vss gf180mcu_fd_sc_mcu7t5v0__inv_1
x_inv340 ring_340 ring_341 vdd vdd vss vss gf180mcu_fd_sc_mcu7t5v0__inv_1
x_inv341 ring_341 ring_342 vdd vdd vss vss gf180mcu_fd_sc_mcu7t5v0__inv_1
x_inv342 ring_342 ring_343 vdd vdd vss vss gf180mcu_fd_sc_mcu7t5v0__inv_1
x_inv343 ring_343 ring_344 vdd vdd vss vss gf180mcu_fd_sc_mcu7t5v0__inv_1
x_inv344 ring_344 ring_345 vdd vdd vss vss gf180mcu_fd_sc_mcu7t5v0__inv_1
x_inv345 ring_345 ring_346 vdd vdd vss vss gf180mcu_fd_sc_mcu7t5v0__inv_1
x_inv346 ring_346 ring_347 vdd vdd vss vss gf180mcu_fd_sc_mcu7t5v0__inv_1
x_inv347 ring_347 ring_348 vdd vdd vss vss gf180mcu_fd_sc_mcu7t5v0__inv_1
x_inv348 ring_348 ring_349 vdd vdd vss vss gf180mcu_fd_sc_mcu7t5v0__inv_1
x_inv349 ring_349 ring_350 vdd vdd vss vss gf180mcu_fd_sc_mcu7t5v0__inv_1
x_inv350 ring_350 ring_351 vdd vdd vss vss gf180mcu_fd_sc_mcu7t5v0__inv_1
x_inv351 ring_351 ring_352 vdd vdd vss vss gf180mcu_fd_sc_mcu7t5v0__inv_1
x_inv352 ring_352 ring_353 vdd vdd vss vss gf180mcu_fd_sc_mcu7t5v0__inv_1
x_inv353 ring_353 ring_354 vdd vdd vss vss gf180mcu_fd_sc_mcu7t5v0__inv_1
x_inv354 ring_354 ring_355 vdd vdd vss vss gf180mcu_fd_sc_mcu7t5v0__inv_1
x_inv355 ring_355 ring_356 vdd vdd vss vss gf180mcu_fd_sc_mcu7t5v0__inv_1
x_inv356 ring_356 ring_357 vdd vdd vss vss gf180mcu_fd_sc_mcu7t5v0__inv_1
x_inv357 ring_357 ring_358 vdd vdd vss vss gf180mcu_fd_sc_mcu7t5v0__inv_1
x_inv358 ring_358 ring_359 vdd vdd vss vss gf180mcu_fd_sc_mcu7t5v0__inv_1
x_inv359 ring_359 ring_360 vdd vdd vss vss gf180mcu_fd_sc_mcu7t5v0__inv_1
x_inv360 ring_360 ring_361 vdd vdd vss vss gf180mcu_fd_sc_mcu7t5v0__inv_1
x_inv361 ring_361 ring_362 vdd vdd vss vss gf180mcu_fd_sc_mcu7t5v0__inv_1
x_inv362 ring_362 ring_363 vdd vdd vss vss gf180mcu_fd_sc_mcu7t5v0__inv_1
x_inv363 ring_363 ring_364 vdd vdd vss vss gf180mcu_fd_sc_mcu7t5v0__inv_1
x_inv364 ring_364 ring_365 vdd vdd vss vss gf180mcu_fd_sc_mcu7t5v0__inv_1
x_inv365 ring_365 ring_366 vdd vdd vss vss gf180mcu_fd_sc_mcu7t5v0__inv_1
x_inv366 ring_366 ring_367 vdd vdd vss vss gf180mcu_fd_sc_mcu7t5v0__inv_1
x_inv367 ring_367 ring_368 vdd vdd vss vss gf180mcu_fd_sc_mcu7t5v0__inv_1
x_inv368 ring_368 ring_369 vdd vdd vss vss gf180mcu_fd_sc_mcu7t5v0__inv_1
x_inv369 ring_369 ring_370 vdd vdd vss vss gf180mcu_fd_sc_mcu7t5v0__inv_1
x_inv370 ring_370 ring_371 vdd vdd vss vss gf180mcu_fd_sc_mcu7t5v0__inv_1
x_inv371 ring_371 ring_372 vdd vdd vss vss gf180mcu_fd_sc_mcu7t5v0__inv_1
x_inv372 ring_372 ring_373 vdd vdd vss vss gf180mcu_fd_sc_mcu7t5v0__inv_1
x_inv373 ring_373 ring_374 vdd vdd vss vss gf180mcu_fd_sc_mcu7t5v0__inv_1
x_inv374 ring_374 ring_375 vdd vdd vss vss gf180mcu_fd_sc_mcu7t5v0__inv_1
x_inv375 ring_375 ring_376 vdd vdd vss vss gf180mcu_fd_sc_mcu7t5v0__inv_1
x_inv376 ring_376 ring_377 vdd vdd vss vss gf180mcu_fd_sc_mcu7t5v0__inv_1
x_inv377 ring_377 ring_378 vdd vdd vss vss gf180mcu_fd_sc_mcu7t5v0__inv_1
x_inv378 ring_378 ring_379 vdd vdd vss vss gf180mcu_fd_sc_mcu7t5v0__inv_1
x_inv379 ring_379 ring_380 vdd vdd vss vss gf180mcu_fd_sc_mcu7t5v0__inv_1
x_inv380 ring_380 ring_381 vdd vdd vss vss gf180mcu_fd_sc_mcu7t5v0__inv_1
x_inv381 ring_381 ring_382 vdd vdd vss vss gf180mcu_fd_sc_mcu7t5v0__inv_1
x_inv382 ring_382 ring_383 vdd vdd vss vss gf180mcu_fd_sc_mcu7t5v0__inv_1
x_inv383 ring_383 ring_384 vdd vdd vss vss gf180mcu_fd_sc_mcu7t5v0__inv_1
x_inv384 ring_384 ring_385 vdd vdd vss vss gf180mcu_fd_sc_mcu7t5v0__inv_1
x_inv385 ring_385 ring_386 vdd vdd vss vss gf180mcu_fd_sc_mcu7t5v0__inv_1
x_inv386 ring_386 ring_387 vdd vdd vss vss gf180mcu_fd_sc_mcu7t5v0__inv_1
x_inv387 ring_387 ring_388 vdd vdd vss vss gf180mcu_fd_sc_mcu7t5v0__inv_1
x_inv388 ring_388 ring_389 vdd vdd vss vss gf180mcu_fd_sc_mcu7t5v0__inv_1
x_inv389 ring_389 ring_390 vdd vdd vss vss gf180mcu_fd_sc_mcu7t5v0__inv_1
x_inv390 ring_390 ring_391 vdd vdd vss vss gf180mcu_fd_sc_mcu7t5v0__inv_1
x_inv391 ring_391 ring_392 vdd vdd vss vss gf180mcu_fd_sc_mcu7t5v0__inv_1
x_inv392 ring_392 ring_393 vdd vdd vss vss gf180mcu_fd_sc_mcu7t5v0__inv_1
x_inv393 ring_393 ring_394 vdd vdd vss vss gf180mcu_fd_sc_mcu7t5v0__inv_1
x_inv394 ring_394 ring_395 vdd vdd vss vss gf180mcu_fd_sc_mcu7t5v0__inv_1
x_inv395 ring_395 ring_396 vdd vdd vss vss gf180mcu_fd_sc_mcu7t5v0__inv_1
x_inv396 ring_396 ring_397 vdd vdd vss vss gf180mcu_fd_sc_mcu7t5v0__inv_1
x_inv397 ring_397 ring_398 vdd vdd vss vss gf180mcu_fd_sc_mcu7t5v0__inv_1
x_inv398 ring_398 ring_399 vdd vdd vss vss gf180mcu_fd_sc_mcu7t5v0__inv_1
x_inv399 ring_399 ring_400 vdd vdd vss vss gf180mcu_fd_sc_mcu7t5v0__inv_1
x_inv400 ring_400 ring_401 vdd vdd vss vss gf180mcu_fd_sc_mcu7t5v0__inv_1
x_inv401 ring_401 ring_402 vdd vdd vss vss gf180mcu_fd_sc_mcu7t5v0__inv_1
x_inv402 ring_402 ring_403 vdd vdd vss vss gf180mcu_fd_sc_mcu7t5v0__inv_1
x_inv403 ring_403 ring_404 vdd vdd vss vss gf180mcu_fd_sc_mcu7t5v0__inv_1